<routes>
	<vType id="vtypeauto" accel="2.5" decel="8" sigma="0.5" length="4"
		   minGap="0" maxSpeed="36" color="1,0,0" probability="1" carFollowModel="IDM" />
	<vType id="passenger" accel="1.5" decel="4.5" sigma="0.5" length="4"
		   minGap="0" maxSpeed="36.11" color="0.16,0.33,0.42" vClass="passenger"
		   guiShape="passenger" speedFactor="1" departSpeed="max"
		   carFollowModel="IDM" />
	<vType id="passenger2" accel="1.5" decel="4.5" sigma="0.5" length="4"
		   minGap="0" maxSpeed="20" color="0.16,0.33,0.42" vClass="passenger"
		   guiShape="passenger" speedFactor="1" departSpeed="max"
	       carFollowModel="IDM" />
	<route id="platoon_route" edges="a1"/>
</routes>
